Circuit: * C:\Users\Daniel\Documents\GitHub\audio-stuff\AMP\ltspice\Amp sim backup.asc

Direct Newton iteration for .op point succeeded.

Date: Sat Aug  5 00:05:30 2023
Total elapsed time: 0.279 seconds.

tnom = 27
temp = 27
method = trap
totiter = 3
traniter = 0
tranpoints = 0
accept = 0
rejected = 0
matrix size = 42
fillins = 32
solver = Normal
Avg thread counts: 8.0/0.0/8.0/1.2
Matrix Compiler1:     244 opcodes
Matrix Compiler2: 4.50 KB object code size
